<?xml version="1.0" encoding="UTF-8"?>

<!-- generated on sex 26 abr 2019 00:16:33 -03 by Eclipse SUMO netedit Version 1.1.0
<configuration xmlns:xsi="http://www.w3.org/2001/XMLSchema-instance" xsi:noNamespaceSchemaLocation="http://sumo.dlr.de/xsd/netconvertConfiguration.xsd">

    <input>
        <sumo-net-file value="circular.net.xml"/>
    </input>

    <output>
        <output-file value="circular.net.xml"/>
    </output>

    <processing>
        <geometry.max-grade.fix value="false"/>
        <offset.disable-normalization value="true"/>
        <lefthand value="false"/>
    </processing>

    <junctions>
        <no-turnarounds value="true"/>
        <junctions.corner-detail value="0"/>
        <junctions.limit-turn-speed value="-1"/>
        <rectangular-lane-cut value="false"/>
    </junctions>

    <pedestrian>
        <walkingareas value="false"/>
    </pedestrian>

</configuration>
-->

<net version="1.1" xmlns:xsi="http://www.w3.org/2001/XMLSchema-instance" xsi:noNamespaceSchemaLocation="http://sumo.dlr.de/xsd/net_file.xsd">

    <location netOffset="250.00,515.04" convBoundary="0.00,0.00,500.00,880.03" origBoundary="-250.00,-515.04,250.00,364.98" projParameter="!"/>

    <edge id=":1_0" function="internal">
        <lane id=":1_0_0" index="0" speed="13.90" length="0.17" shape="504.80,514.92 504.80,515.16"/>
        <lane id=":1_0_1" index="1" speed="13.90" length="0.17" shape="501.60,515.00 501.60,515.08"/>
    </edge>
    <edge id=":10_0" function="internal">
        <lane id=":10_0_0" index="0" speed="13.90" length="0.17" shape="200.41,764.97 200.18,764.92"/>
        <lane id=":10_0_1" index="1" speed="13.90" length="0.17" shape="200.96,761.82 200.88,761.80"/>
    </edge>
    <edge id=":100_0" function="internal">
        <lane id=":100_0_0" index="0" speed="13.90" length="0.12" shape="492.30,234.97 492.30,235.11"/>
        <lane id=":100_0_1" index="1" speed="13.90" length="0.12" shape="489.10,235.02 489.10,235.06"/>
    </edge>
    <edge id=":101_0" function="internal">
        <lane id=":101_0_0" index="0" speed="13.90" length="0.13" shape="489.44,281.41 489.42,281.56"/>
        <lane id=":101_0_1" index="1" speed="13.90" length="0.13" shape="486.26,281.06 486.25,281.11"/>
    </edge>
    <edge id=":102_0" function="internal">
        <lane id=":102_0_0" index="0" speed="13.90" length="0.13" shape="480.93,326.12 480.89,326.28"/>
        <lane id=":102_0_1" index="1" speed="13.90" length="0.13" shape="477.82,325.37 477.81,325.42"/>
    </edge>
    <edge id=":104_0" function="internal">
        <lane id=":104_0_0" index="0" speed="13.90" length="0.16" shape="448.42,403.70 448.31,403.89"/>
        <lane id=":104_0_1" index="1" speed="13.90" length="0.16" shape="445.67,402.06 445.64,402.12"/>
    </edge>
    <edge id=":105_0" function="internal">
        <lane id=":105_0_0" index="0" speed="13.90" length="3.17" shape="427.53,431.43 425.36,433.85"/>
        <lane id=":105_0_1" index="1" speed="13.90" length="3.17" shape="425.14,429.30 423.09,431.60"/>
    </edge>
    <edge id=":106_0" function="internal">
        <lane id=":106_0_0" index="0" speed="13.90" length="3.21" shape="401.67,454.37 398.96,456.28"/>
        <lane id=":106_0_1" index="1" speed="13.90" length="3.21" shape="399.82,451.76 397.29,453.55"/>
    </edge>
    <edge id=":107_0" function="internal">
        <lane id=":107_0_0" index="0" speed="13.90" length="0.23" shape="370.39,470.08 370.06,470.19"/>
        <lane id=":107_0_1" index="1" speed="13.90" length="0.23" shape="369.32,467.07 369.21,467.10"/>
    </edge>
    <edge id=":108_0" function="internal">
        <lane id=":108_0_0" index="0" speed="13.90" length="0.25" shape="340.19,474.88 339.81,474.88"/>
        <lane id=":108_0_1" index="1" speed="13.90" length="0.25" shape="340.06,471.68 339.94,471.68"/>
    </edge>
    <edge id=":109_0" function="internal">
        <lane id=":109_0_0" index="0" speed="13.90" length="0.23" shape="309.94,470.19 309.61,470.08"/>
        <lane id=":109_0_1" index="1" speed="13.90" length="0.23" shape="310.79,467.10 310.68,467.07"/>
    </edge>
    <edge id=":11_0" function="internal">
        <lane id=":11_0_0" index="0" speed="13.90" length="0.17" shape="152.60,750.49 152.39,750.40"/>
        <lane id=":11_0_1" index="1" speed="13.90" length="0.17" shape="153.75,747.50 153.68,747.47"/>
    </edge>
    <edge id=":110_0" function="internal">
        <lane id=":110_0_0" index="0" speed="13.90" length="3.21" shape="281.04,456.28 278.33,454.37"/>
        <lane id=":110_0_1" index="1" speed="13.90" length="3.21" shape="282.71,453.55 280.18,451.76"/>
    </edge>
    <edge id=":112_0" function="internal">
        <lane id=":112_0_0" index="0" speed="13.90" length="0.16" shape="231.69,403.89 231.58,403.70"/>
        <lane id=":112_0_1" index="1" speed="13.90" length="0.16" shape="234.36,402.12 234.33,402.06"/>
    </edge>
    <edge id=":113_0" function="internal">
        <lane id=":113_0_0" index="0" speed="13.90" length="0.14" shape="212.97,367.56 212.90,367.39"/>
        <lane id=":113_0_1" index="1" speed="13.90" length="0.14" shape="215.90,366.27 215.87,366.21"/>
    </edge>
    <edge id=":114_0" function="internal">
        <lane id=":114_0_0" index="0" speed="13.90" length="0.13" shape="199.11,326.28 199.07,326.12"/>
        <lane id=":114_0_1" index="1" speed="13.90" length="0.13" shape="202.19,325.42 202.18,325.37"/>
    </edge>
    <edge id=":116_0" function="internal">
        <lane id=":116_0_0" index="0" speed="13.90" length="0.12" shape="187.70,235.11 187.70,234.97"/>
        <lane id=":116_0_1" index="1" speed="13.90" length="0.12" shape="190.90,235.06 190.90,235.02"/>
    </edge>
    <edge id=":117_0" function="internal">
        <lane id=":117_0_0" index="0" speed="13.90" length="0.13" shape="190.56,188.67 190.58,188.52"/>
        <lane id=":117_0_1" index="1" speed="13.90" length="0.13" shape="193.74,189.02 193.75,188.97"/>
    </edge>
    <edge id=":118_0" function="internal">
        <lane id=":118_0_0" index="0" speed="13.90" length="0.13" shape="199.07,143.96 199.11,143.80"/>
        <lane id=":118_0_1" index="1" speed="13.90" length="0.13" shape="202.18,144.71 202.19,144.66"/>
    </edge>
    <edge id=":119_0" function="internal">
        <lane id=":119_0_0" index="0" speed="13.90" length="0.14" shape="212.90,102.69 212.97,102.52"/>
        <lane id=":119_0_1" index="1" speed="13.90" length="0.14" shape="215.87,103.87 215.90,103.81"/>
    </edge>
    <edge id=":12_0" function="internal">
        <lane id=":12_0_0" index="0" speed="13.90" length="0.17" shape="108.54,726.97 108.34,726.83"/>
        <lane id=":12_0_1" index="1" speed="13.90" length="0.17" shape="110.25,724.26 110.19,724.22"/>
    </edge>
    <edge id=":120_0" function="internal">
        <lane id=":120_0_0" index="0" speed="13.90" length="0.16" shape="231.58,66.38 231.69,66.19"/>
        <lane id=":120_0_1" index="1" speed="13.90" length="0.16" shape="234.33,68.02 234.36,67.96"/>
    </edge>
    <edge id=":122_0" function="internal">
        <lane id=":122_0_0" index="0" speed="13.90" length="0.21" shape="280.78,13.97 281.04,13.80"/>
        <lane id=":122_0_1" index="1" speed="13.90" length="0.21" shape="282.63,16.58 282.71,16.53"/>
    </edge>
    <edge id=":123_0" function="internal">
        <lane id=":123_0_0" index="0" speed="13.90" length="0.23" shape="309.61,-0.00 309.94,-0.11"/>
        <lane id=":123_0_1" index="1" speed="13.90" length="0.23" shape="310.68,3.01 310.79,2.98"/>
    </edge>
    <edge id=":124_0" function="internal">
        <lane id=":124_0_0" index="0" speed="13.90" length="0.25" shape="339.81,-4.80 340.19,-4.80"/>
        <lane id=":124_0_1" index="1" speed="13.90" length="0.25" shape="339.94,-1.60 340.06,-1.60"/>
    </edge>
    <edge id=":125_0" function="internal">
        <lane id=":125_0_0" index="0" speed="13.90" length="0.23" shape="370.06,-0.11 370.39,-0.00"/>
        <lane id=":125_0_1" index="1" speed="13.90" length="0.23" shape="369.21,2.98 369.32,3.01"/>
    </edge>
    <edge id=":126_0" function="internal">
        <lane id=":126_0_0" index="0" speed="13.90" length="3.21" shape="398.96,13.80 401.67,15.71"/>
        <lane id=":126_0_1" index="1" speed="13.90" length="3.21" shape="397.29,16.53 399.82,18.32"/>
    </edge>
    <edge id=":127_0" function="internal">
        <lane id=":127_0_0" index="0" speed="13.90" length="0.18" shape="425.36,36.23 425.53,36.42"/>
        <lane id=":127_0_1" index="1" speed="13.90" length="0.18" shape="423.09,38.48 423.14,38.55"/>
    </edge>
    <edge id=":128_0" function="internal">
        <lane id=":128_0_0" index="0" speed="13.90" length="0.16" shape="448.31,66.19 448.42,66.38"/>
        <lane id=":128_0_1" index="1" speed="13.90" length="0.16" shape="445.64,67.96 445.67,68.02"/>
    </edge>
    <edge id=":129_0" function="internal">
        <lane id=":129_0_0" index="0" speed="13.90" length="0.14" shape="467.03,102.52 467.10,102.69"/>
        <lane id=":129_0_1" index="1" speed="13.90" length="0.14" shape="464.10,103.81 464.13,103.87"/>
    </edge>
    <edge id=":13_0" function="internal">
        <lane id=":13_0_0" index="0" speed="13.90" length="0.17" shape="69.91,695.30 69.74,695.13"/>
        <lane id=":13_0_1" index="1" speed="13.90" length="0.17" shape="72.12,692.98 72.06,692.92"/>
    </edge>
    <edge id=":130_0" function="internal">
        <lane id=":130_0_0" index="0" speed="13.90" length="0.13" shape="480.89,143.80 480.93,143.96"/>
        <lane id=":130_0_1" index="1" speed="13.90" length="0.13" shape="477.81,144.66 477.82,144.71"/>
    </edge>
    <edge id=":131_0" function="internal">
        <lane id=":131_0_0" index="0" speed="13.90" length="0.13" shape="489.42,188.52 489.44,188.67"/>
        <lane id=":131_0_1" index="1" speed="13.90" length="0.13" shape="486.25,188.97 486.26,189.02"/>
    </edge>
    <edge id=":14_0" function="internal">
        <lane id=":14_0_0" index="0" speed="13.90" length="14.27" shape="39.90,659.01 32.06,646.99"/>
        <lane id=":14_0_1" index="1" speed="13.90" length="14.27" shape="42.52,657.18 34.76,645.28"/>
    </edge>
    <edge id=":14_2" function="internal">
        <lane id=":14_2_0" index="0" speed="13.90" length="9.69" shape="42.52,657.18 41.43,654.95 41.28,652.76 42.09,650.63 43.86,648.54"/>
    </edge>
    <edge id=":14_3" function="internal">
        <lane id=":14_3_0" index="0" speed="13.90" length="9.70" shape="31.05,655.85 32.60,653.73 33.29,651.55 33.11,649.30 32.06,646.99"/>
    </edge>
    <edge id=":14_4" function="internal">
        <lane id=":14_4_0" index="0" speed="13.90" length="14.46" shape="31.05,655.85 41.69,646.19"/>
        <lane id=":14_4_1" index="1" speed="13.90" length="14.46" shape="33.10,658.34 43.86,648.54"/>
    </edge>
    <edge id=":15_0" function="internal">
        <lane id=":15_0_0" index="0" speed="13.90" length="0.17" shape="14.64,612.65 14.55,612.44"/>
        <lane id=":15_0_1" index="1" speed="13.90" length="0.17" shape="17.57,611.36 17.54,611.29"/>
    </edge>
    <edge id=":16_0" function="internal">
        <lane id=":16_0_0" index="0" speed="13.90" length="0.17" shape="0.12,564.86 0.07,564.63"/>
        <lane id=":16_0_1" index="1" speed="13.90" length="0.17" shape="3.24,564.16 3.22,564.08"/>
    </edge>
    <edge id=":17_0" function="internal">
        <lane id=":17_0_0" index="0" speed="13.90" length="0.17" shape="-4.80,515.16 -4.80,514.92"/>
        <lane id=":17_0_1" index="1" speed="13.90" length="0.17" shape="-1.60,515.08 -1.60,515.00"/>
    </edge>
    <edge id=":18_0" function="internal">
        <lane id=":18_0_0" index="0" speed="13.90" length="0.17" shape="0.07,465.45 0.12,465.22"/>
        <lane id=":18_0_1" index="1" speed="13.90" length="0.17" shape="3.22,466.00 3.24,465.92"/>
    </edge>
    <edge id=":19_0" function="internal">
        <lane id=":19_0_0" index="0" speed="13.90" length="0.17" shape="14.55,417.64 14.64,417.43"/>
        <lane id=":19_0_1" index="1" speed="13.90" length="0.17" shape="17.54,418.79 17.57,418.72"/>
    </edge>
    <edge id=":2_0" function="internal">
        <lane id=":2_0_0" index="0" speed="13.90" length="0.17" shape="499.93,564.63 499.88,564.86"/>
        <lane id=":2_0_1" index="1" speed="13.90" length="0.17" shape="496.78,564.08 496.76,564.16"/>
    </edge>
    <edge id=":21_0" function="internal">
        <lane id=":21_0_0" index="0" speed="13.90" length="0.17" shape="69.74,334.95 69.91,334.78"/>
        <lane id=":21_0_1" index="1" speed="13.90" length="0.17" shape="72.06,337.16 72.12,337.10"/>
    </edge>
    <edge id=":22_0" function="internal">
        <lane id=":22_0_0" index="0" speed="13.90" length="0.17" shape="108.34,303.25 108.54,303.11"/>
        <lane id=":22_0_1" index="1" speed="13.90" length="0.17" shape="110.19,305.86 110.25,305.82"/>
    </edge>
    <edge id=":23_0" function="internal">
        <lane id=":23_0_0" index="0" speed="13.90" length="0.17" shape="152.39,279.68 152.60,279.59"/>
        <lane id=":23_0_1" index="1" speed="13.90" length="0.17" shape="153.68,282.61 153.75,282.58"/>
    </edge>
    <edge id=":24_0" function="internal">
        <lane id=":24_0_0" index="0" speed="13.90" length="14.06" shape="189.93,276.10 188.67,261.99"/>
        <lane id=":24_0_1" index="1" speed="13.90" length="14.06" shape="193.10,275.67 191.86,261.76"/>
    </edge>
    <edge id=":24_2" function="internal">
        <lane id=":24_2_0" index="0" speed="13.90" length="9.17" shape="193.10,275.67 193.12,273.16 193.91,271.23 195.48,269.86 197.83,269.05"/>
    </edge>
    <edge id=":24_3" function="internal">
        <lane id=":24_3_0" index="0" speed="13.90" length="9.80" shape="183.48,269.24 185.90,268.23 187.57,266.68 188.50,264.60 188.67,261.99"/>
    </edge>
    <edge id=":24_4" function="internal">
        <lane id=":24_4_0" index="0" speed="13.90" length="14.04" shape="183.48,269.24 197.24,265.91"/>
        <lane id=":24_4_1" index="1" speed="13.90" length="14.04" shape="184.30,272.33 197.83,269.05"/>
    </edge>
    <edge id=":25_0" function="internal">
        <lane id=":25_0_0" index="0" speed="13.90" length="0.17" shape="249.88,260.24 250.12,260.24"/>
        <lane id=":25_0_1" index="1" speed="13.90" length="0.17" shape="249.96,263.44 250.04,263.44"/>
    </edge>
    <edge id=":26_0" function="internal">
        <lane id=":26_0_0" index="0" speed="13.90" length="9.77" shape="311.27,261.78 311.39,264.39 312.28,266.47 313.93,268.03 316.34,269.08"/>
    </edge>
    <edge id=":26_1" function="internal">
        <lane id=":26_1_0" index="0" speed="13.90" length="14.17" shape="311.27,261.78 309.85,275.92"/>
        <lane id=":26_1_1" index="1" speed="13.90" length="14.17" shape="308.08,261.49 306.68,275.54"/>
    </edge>
    <edge id=":26_3" function="internal">
        <lane id=":26_3_0" index="0" speed="13.90" length="13.98" shape="302.63,265.67 306.75,266.45 309.54,267.12 312.31,267.91 316.34,269.08"/>
        <lane id=":26_3_1" index="1" speed="13.90" length="13.98" shape="302.07,268.82 306.10,269.58 308.83,270.24 311.54,271.02 315.48,272.16"/>
    </edge>
    <edge id=":26_5" function="internal">
        <lane id=":26_5_0" index="0" speed="13.90" length="9.18" shape="302.07,268.82 304.35,269.59 305.87,270.96 306.65,272.95 306.68,275.54"/>
    </edge>
    <edge id=":27_0" function="internal">
        <lane id=":27_0_0" index="0" speed="13.90" length="0.17" shape="347.40,279.59 347.61,279.68"/>
        <lane id=":27_0_1" index="1" speed="13.90" length="0.17" shape="346.25,282.58 346.32,282.61"/>
    </edge>
    <edge id=":28_0" function="internal">
        <lane id=":28_0_0" index="0" speed="13.90" length="0.17" shape="391.46,303.11 391.66,303.25"/>
        <lane id=":28_0_1" index="1" speed="13.90" length="0.17" shape="389.75,305.82 389.81,305.86"/>
    </edge>
    <edge id=":29_0" function="internal">
        <lane id=":29_0_0" index="0" speed="13.90" length="0.17" shape="430.09,334.78 430.26,334.95"/>
        <lane id=":29_0_1" index="1" speed="13.90" length="0.17" shape="427.88,337.10 427.94,337.16"/>
    </edge>
    <edge id=":3_0" function="internal">
        <lane id=":3_0_0" index="0" speed="13.90" length="0.17" shape="485.45,612.44 485.36,612.65"/>
        <lane id=":3_0_1" index="1" speed="13.90" length="0.17" shape="482.46,611.29 482.43,611.36"/>
    </edge>
    <edge id=":30_0" function="internal">
        <lane id=":30_0_0" index="0" speed="13.90" length="13.07" shape="466.20,369.38 465.24,372.67 465.09,375.85 465.74,378.93 467.20,381.91"/>
    </edge>
    <edge id=":30_1" function="internal">
        <lane id=":30_1_0" index="0" speed="13.90" length="15.68" shape="466.20,369.38 464.44,373.75 463.21,376.73 461.83,379.64 459.65,383.80"/>
        <lane id=":30_1_1" index="1" speed="13.90" length="15.68" shape="463.23,368.18 461.51,372.45 460.31,375.36 458.97,378.21 456.83,382.29"/>
    </edge>
    <edge id=":30_3" function="internal">
        <lane id=":30_3_0" index="0" speed="13.90" length="15.74" shape="458.48,368.71 467.20,381.91"/>
        <lane id=":30_3_1" index="1" speed="13.90" length="15.74" shape="455.86,370.55 464.49,383.63"/>
    </edge>
    <edge id=":30_5" function="internal">
        <lane id=":30_5_0" index="0" speed="13.90" length="12.45" shape="455.86,370.55 457.46,373.49 458.16,376.42 457.95,379.36 456.83,382.29"/>
    </edge>
    <edge id=":31_0" function="internal">
        <lane id=":31_0_0" index="0" speed="13.90" length="0.17" shape="485.36,417.43 485.45,417.64"/>
        <lane id=":31_0_1" index="1" speed="13.90" length="0.17" shape="482.43,418.72 482.46,418.79"/>
    </edge>
    <edge id=":32_0" function="internal">
        <lane id=":32_0_0" index="0" speed="13.90" length="0.17" shape="499.88,465.22 499.93,465.45"/>
        <lane id=":32_0_1" index="1" speed="13.90" length="0.17" shape="496.76,465.92 496.78,466.00"/>
    </edge>
    <edge id=":34_0" function="internal">
        <lane id=":34_0_0" index="0" speed="13.90" length="0.26" shape="503.30,732.34 503.30,732.74"/>
        <lane id=":34_0_1" index="1" speed="13.90" length="0.26" shape="500.10,732.47 500.10,732.61"/>
    </edge>
    <edge id=":35_0" function="internal">
        <lane id=":35_0_0" index="0" speed="13.90" length="0.25" shape="498.34,762.65 498.22,763.01"/>
        <lane id=":35_0_1" index="1" speed="13.90" length="0.25" shape="495.27,761.76 495.23,761.88"/>
    </edge>
    <edge id=":36_0" function="internal">
        <lane id=":36_0_0" index="0" speed="13.90" length="3.21" shape="485.24,789.08 483.43,791.85"/>
        <lane id=":36_0_1" index="1" speed="13.90" length="3.21" shape="482.56,787.34 480.86,789.94"/>
    </edge>
    <edge id=":37_0" function="internal">
        <lane id=":37_0_0" index="0" speed="13.90" length="3.17" shape="459.90,817.98 457.42,820.08"/>
        <lane id=":37_0_1" index="1" speed="13.90" length="3.17" shape="457.71,815.65 455.36,817.64"/>
    </edge>
    <edge id=":38_0" function="internal">
        <lane id=":38_0_0" index="0" speed="13.90" length="0.16" shape="428.26,840.90 428.08,841.01"/>
        <lane id=":38_0_1" index="1" speed="13.90" length="0.16" shape="426.57,838.19 426.51,838.22"/>
    </edge>
    <edge id=":39_0" function="internal">
        <lane id=":39_0_0" index="0" speed="13.90" length="0.14" shape="389.91,859.60 389.75,859.66"/>
        <lane id=":39_0_1" index="1" speed="13.90" length="0.14" shape="388.68,856.65 388.62,856.67"/>
    </edge>
    <edge id=":4_0" function="internal">
        <lane id=":4_0_0" index="0" speed="13.90" length="9.95" shape="468.02,646.93 467.00,649.34 466.85,651.66 467.56,653.90 469.14,656.04"/>
    </edge>
    <edge id=":4_1" function="internal">
        <lane id=":4_1_0" index="0" speed="13.90" length="14.08" shape="468.02,646.93 465.90,650.59 464.45,653.10 462.88,655.53 460.43,658.97"/>
        <lane id=":4_1_1" index="1" speed="13.90" length="14.08" shape="465.27,645.30 463.19,648.88 461.78,651.33 460.25,653.71 457.85,657.07"/>
    </edge>
    <edge id=":4_3" function="internal">
        <lane id=":4_3_0" index="0" speed="13.90" length="14.26" shape="458.69,646.33 469.14,656.04"/>
        <lane id=":4_3_1" index="1" speed="13.90" length="14.26" shape="456.57,648.73 467.01,658.44"/>
    </edge>
    <edge id=":4_5" function="internal">
        <lane id=":4_5_0" index="0" speed="13.90" length="9.44" shape="456.57,648.73 458.33,650.74 459.13,652.81 458.97,654.91 457.85,657.07"/>
    </edge>
    <edge id=":40_0" function="internal">
        <lane id=":40_0_0" index="0" speed="13.90" length="0.13" shape="346.32,873.44 346.17,873.48"/>
        <lane id=":40_0_1" index="1" speed="13.90" length="0.13" shape="345.51,870.35 345.46,870.36"/>
    </edge>
    <edge id=":41_0" function="internal">
        <lane id=":41_0_0" index="0" speed="13.90" length="0.12" shape="299.12,881.95 298.97,881.96"/>
        <lane id=":41_0_1" index="1" speed="13.90" length="0.12" shape="298.69,878.78 298.64,878.78"/>
    </edge>
    <edge id=":42_0" function="internal">
        <lane id=":42_0_0" index="0" speed="13.90" length="0.12" shape="250.07,884.82 249.93,884.82"/>
        <lane id=":42_0_1" index="1" speed="13.90" length="0.12" shape="250.02,881.62 249.98,881.62"/>
    </edge>
    <edge id=":43_0" function="internal">
        <lane id=":43_0_0" index="0" speed="13.90" length="0.12" shape="201.03,881.96 200.88,881.95"/>
        <lane id=":43_0_1" index="1" speed="13.90" length="0.12" shape="201.36,878.78 201.31,878.78"/>
    </edge>
    <edge id=":44_0" function="internal">
        <lane id=":44_0_0" index="0" speed="13.90" length="0.13" shape="153.83,873.48 153.68,873.44"/>
        <lane id=":44_0_1" index="1" speed="13.90" length="0.13" shape="154.54,870.36 154.49,870.35"/>
    </edge>
    <edge id=":45_0" function="internal">
        <lane id=":45_0_0" index="0" speed="13.90" length="0.14" shape="110.25,859.66 110.09,859.60"/>
        <lane id=":45_0_1" index="1" speed="13.90" length="0.14" shape="111.38,856.67 111.32,856.65"/>
    </edge>
    <edge id=":46_0" function="internal">
        <lane id=":46_0_0" index="0" speed="13.90" length="0.16" shape="71.92,841.01 71.74,840.90"/>
        <lane id=":46_0_1" index="1" speed="13.90" length="0.16" shape="73.49,838.22 73.43,838.19"/>
    </edge>
    <edge id=":47_0" function="internal">
        <lane id=":47_0_0" index="0" speed="13.90" length="3.17" shape="40.29,818.15 37.91,815.93"/>
        <lane id=":47_0_1" index="1" speed="13.90" length="3.17" shape="42.35,815.70 40.10,813.60"/>
    </edge>
    <edge id=":48_0" function="internal">
        <lane id=":48_0_0" index="0" speed="13.90" length="3.21" shape="16.57,791.85 14.76,789.08"/>
        <lane id=":48_0_1" index="1" speed="13.90" length="3.21" shape="19.14,789.94 17.44,787.34"/>
    </edge>
    <edge id=":49_0" function="internal">
        <lane id=":49_0_0" index="0" speed="13.90" length="3.25" shape="2.85,765.82 1.66,762.65"/>
        <lane id=":49_0_1" index="1" speed="13.90" length="3.25" shape="5.84,764.68 4.73,761.76"/>
    </edge>
    <edge id=":5_0" function="internal">
        <lane id=":5_0_0" index="0" speed="13.90" length="0.17" shape="430.26,695.13 430.09,695.30"/>
        <lane id=":5_0_1" index="1" speed="13.90" length="0.17" shape="427.94,692.92 427.88,692.98"/>
    </edge>
    <edge id=":50_0" function="internal">
        <lane id=":50_0_0" index="0" speed="13.90" length="0.26" shape="-3.30,732.74 -3.30,732.34"/>
        <lane id=":50_0_1" index="1" speed="13.90" length="0.26" shape="-0.10,732.61 -0.10,732.47"/>
    </edge>
    <edge id=":51_0" function="internal">
        <lane id=":51_0_0" index="0" speed="13.90" length="0.25" shape="1.66,702.43 1.78,702.07"/>
        <lane id=":51_0_1" index="1" speed="13.90" length="0.25" shape="4.73,703.32 4.77,703.20"/>
    </edge>
    <edge id=":52_0" function="internal">
        <lane id=":52_0_0" index="0" speed="13.90" length="3.21" shape="16.40,673.48 18.37,670.82"/>
        <lane id=":52_0_1" index="1" speed="13.90" length="3.21" shape="19.08,675.23 20.93,672.74"/>
    </edge>
    <edge id=":54_0" function="internal">
        <lane id=":54_0_0" index="0" speed="13.90" length="0.16" shape="71.74,624.18 71.92,624.07"/>
        <lane id=":54_0_1" index="1" speed="13.90" length="0.16" shape="73.43,626.89 73.49,626.86"/>
    </edge>
    <edge id=":55_0" function="internal">
        <lane id=":55_0_0" index="0" speed="13.90" length="0.14" shape="110.09,605.48 110.25,605.42"/>
        <lane id=":55_0_1" index="1" speed="13.90" length="0.14" shape="111.32,608.43 111.38,608.41"/>
    </edge>
    <edge id=":56_0" function="internal">
        <lane id=":56_0_0" index="0" speed="13.90" length="0.13" shape="153.68,591.64 153.83,591.60"/>
        <lane id=":56_0_1" index="1" speed="13.90" length="0.13" shape="154.49,594.73 154.54,594.72"/>
    </edge>
    <edge id=":57_0" function="internal">
        <lane id=":57_0_0" index="0" speed="13.90" length="0.12" shape="200.88,583.13 201.03,583.12"/>
        <lane id=":57_0_1" index="1" speed="13.90" length="0.12" shape="201.31,586.30 201.36,586.30"/>
    </edge>
    <edge id=":58_0" function="internal">
        <lane id=":58_0_0" index="0" speed="13.90" length="0.12" shape="249.93,580.26 250.07,580.26"/>
        <lane id=":58_0_1" index="1" speed="13.90" length="0.12" shape="249.98,583.46 250.02,583.46"/>
    </edge>
    <edge id=":59_0" function="internal">
        <lane id=":59_0_0" index="0" speed="13.90" length="0.12" shape="298.97,583.12 299.12,583.13"/>
        <lane id=":59_0_1" index="1" speed="13.90" length="0.12" shape="298.64,586.30 298.69,586.30"/>
    </edge>
    <edge id=":6_0" function="internal">
        <lane id=":6_0_0" index="0" speed="13.90" length="0.17" shape="391.66,726.83 391.46,726.97"/>
        <lane id=":6_0_1" index="1" speed="13.90" length="0.17" shape="389.81,724.22 389.75,724.26"/>
    </edge>
    <edge id=":60_0" function="internal">
        <lane id=":60_0_0" index="0" speed="13.90" length="0.13" shape="346.17,591.60 346.32,591.64"/>
        <lane id=":60_0_1" index="1" speed="13.90" length="0.13" shape="345.46,594.72 345.51,594.73"/>
    </edge>
    <edge id=":61_0" function="internal">
        <lane id=":61_0_0" index="0" speed="13.90" length="0.14" shape="389.75,605.42 389.91,605.48"/>
        <lane id=":61_0_1" index="1" speed="13.90" length="0.14" shape="388.62,608.41 388.68,608.43"/>
    </edge>
    <edge id=":62_0" function="internal">
        <lane id=":62_0_0" index="0" speed="13.90" length="0.16" shape="428.08,624.07 428.26,624.18"/>
        <lane id=":62_0_1" index="1" speed="13.90" length="0.16" shape="426.51,626.86 426.57,626.89"/>
    </edge>
    <edge id=":64_0" function="internal">
        <lane id=":64_0_0" index="0" speed="13.90" length="3.21" shape="483.43,673.23 485.24,676.00"/>
        <lane id=":64_0_1" index="1" speed="13.90" length="3.21" shape="480.86,675.14 482.56,677.74"/>
    </edge>
    <edge id=":65_0" function="internal">
        <lane id=":65_0_0" index="0" speed="13.90" length="3.25" shape="498.22,702.07 499.18,705.31"/>
        <lane id=":65_0_1" index="1" speed="13.90" length="3.25" shape="495.23,703.20 496.11,706.20"/>
    </edge>
    <edge id=":67_0" function="internal">
        <lane id=":67_0_0" index="0" speed="13.90" length="0.12" shape="312.30,234.97 312.30,235.11"/>
        <lane id=":67_0_1" index="1" speed="13.90" length="0.12" shape="309.10,235.02 309.10,235.06"/>
    </edge>
    <edge id=":69_0" function="internal">
        <lane id=":69_0_0" index="0" speed="13.90" length="0.13" shape="300.93,326.12 300.89,326.28"/>
        <lane id=":69_0_1" index="1" speed="13.90" length="0.13" shape="297.82,325.37 297.81,325.42"/>
    </edge>
    <edge id=":7_0" function="internal">
        <lane id=":7_0_0" index="0" speed="13.90" length="0.17" shape="347.61,750.40 347.40,750.49"/>
        <lane id=":7_0_1" index="1" speed="13.90" length="0.17" shape="346.32,747.47 346.25,747.50"/>
    </edge>
    <edge id=":70_0" function="internal">
        <lane id=":70_0_0" index="0" speed="13.90" length="0.14" shape="287.10,367.39 287.03,367.56"/>
        <lane id=":70_0_1" index="1" speed="13.90" length="0.14" shape="284.13,366.21 284.10,366.27"/>
    </edge>
    <edge id=":71_0" function="internal">
        <lane id=":71_0_0" index="0" speed="13.90" length="0.16" shape="268.42,403.70 268.31,403.89"/>
        <lane id=":71_0_1" index="1" speed="13.90" length="0.16" shape="265.67,402.06 265.64,402.12"/>
    </edge>
    <edge id=":72_0" function="internal">
        <lane id=":72_0_0" index="0" speed="13.90" length="9.04" shape="253.67,432.29 251.72,430.70 249.78,430.18 247.86,430.74 245.95,432.38"/>
    </edge>
    <edge id=":72_1" function="internal">
        <lane id=":72_1_0" index="0" speed="13.90" length="15.36" shape="253.67,432.29 243.43,420.68"/>
        <lane id=":72_1_1" index="1" speed="13.90" length="15.36" shape="256.03,430.13 245.94,418.69"/>
    </edge>
    <edge id=":72_3" function="internal">
        <lane id=":72_3_0" index="0" speed="13.90" length="15.01" shape="255.92,421.23 245.95,432.38"/>
        <lane id=":72_3_1" index="1" speed="13.90" length="15.01" shape="253.59,419.03 243.54,430.27"/>
    </edge>
    <edge id=":72_5" function="internal">
        <lane id=":72_5_0" index="0" speed="13.90" length="9.05" shape="253.59,419.03 251.61,420.61 249.67,421.07 247.78,420.44 245.94,418.69"/>
    </edge>
    <edge id=":73_0" function="internal">
        <lane id=":73_0_0" index="0" speed="13.90" length="3.21" shape="219.22,456.11 216.40,457.85"/>
        <lane id=":73_0_1" index="1" speed="13.90" length="3.21" shape="217.37,453.50 214.73,455.12"/>
    </edge>
    <edge id=":74_0" function="internal">
        <lane id=":74_0_0" index="0" speed="13.90" length="0.23" shape="190.39,470.08 190.06,470.19"/>
        <lane id=":74_0_1" index="1" speed="13.90" length="0.23" shape="189.32,467.07 189.21,467.10"/>
    </edge>
    <edge id=":75_0" function="internal">
        <lane id=":75_0_0" index="0" speed="13.90" length="0.25" shape="160.19,474.88 159.81,474.88"/>