<?xml version="1.0" encoding="UTF-8"?>

<!-- generated on Mon May 20 14:00:16 2019 by Eclipse SUMO jtrrouter Version 1.2.0
<configuration xmlns:xsi="http://www.w3.org/2001/XMLSchema-instance" xsi:noNamespaceSchemaLocation="http://sumo.dlr.de/xsd/jtrrouterConfiguration.xsd">

    <input>
        <net-file value="circular.net.xml"/>
        <route-files value="circular.flow.xml"/>
        <turn-ratio-files value="circular.turns.xml"/>
    </input>

    <output>
        <output-file value="circular.rou.xml"/>
    </output>

    <processing>
        <no-internal-links value="true"/>
    </processing>

</configuration>
-->

<routes xmlns:xsi="http://www.w3.org/2001/XMLSchema-instance" xsi:noNamespaceSchemaLocation="http://sumo.dlr.de/xsd/routes_file.xsd">
    <vehicle id="0.2.0" depart="0.00">
        <route edges="80 81 82 83 84 85 86 87 88 89 90 91 92 93 94 95 96 65 26 27 28 29 100 101 102 103 104 105 106 107 108 109 110 111 24 25 66 67 68 69 70 71 72 73 74 75 76 77 20 21 22 23 112 113 114 115 116 117 118 119"/>
    </vehicle>
    <vehicle id="0.4.0" depart="0.00">
        <route edges="64 33 34 35 36 37 38 39 40 41 42 43 44 45 46 47 48 49 50 51 14 15 16 17 18 19 78 79"/>
    </vehicle>
    <vehicle id="0.2.1" depart="1.00">
        <route edges="80 81 82 83 84 85 86 87 88 89 90 91 118 119"/>
    </vehicle>
    <vehicle id="0.3.0" depart="1.00">
        <route edges="32 1 2 3 4 5 6 7 8 9 10 11 12 13 52 53 54 55 56 57 58 59 60 61 62 63"/>
    </vehicle>
    <vehicle id="0.1.0" depart="2.00">
        <route edges="120 121 122 123 124 125 126 127 128 97 98 99 30 31"/>
    </vehicle>
    <vehicle id="0.3.1" depart="2.00">
        <route edges="32 1 2 3 62 63"/>
    </vehicle>
    <vehicle id="0.4.1" depart="2.00">
        <route edges="64 33 34 35 36 37 38 39 40 41 42 43 44 45 46 47 48 49 50 51 52 53 54 55 56 57 58 59 60 61 62 63"/>
    </vehicle>
    <vehicle id="0.1.1" depart="3.00">
        <route edges="120 121 122 123 124 125 126 127 128 97 98 99 30 31"/>
    </vehicle>
    <vehicle id="0.2.2" depart="3.00">
        <route edges="80 81 82 83 84 85 86 87 88 89 90 91 92 93 94 95 96 65 26 27 28 29 30 31"/>
    </vehicle>
    <vehicle id="0.3.2" depart="3.00">
        <route edges="32 1 2 3 4 5 6 7 8 9 10 11 12 13 52 53 54 55 56 57 58 59 60 61 62 63"/>
    </vehicle>
    <vehicle id="0.4.2" depart="3.00">
        <route edges="64 33 34 35 36 37 38 39 40 41 42 43 44 45 46 47 48 49 50 51 52 53 54 55 56 57 58 59 60 61 62 63"/>
    </vehicle>
    <vehicle id="0.1.2" depart="5.00">
        <route edges="120 121 122 123 124 125 126 127 128 97 98 99 100 101 102 103 104 105 106 107 70 71 72 73 74 75 76 77 78 79"/>
    </vehicle>
    <vehicle id="0.3.3" depart="5.00">
        <route edges="32 1 2 3 62 63"/>
    </vehicle>
    <vehicle id="0.4.3" depart="5.00">
        <route edges="64 33 34 35 36 37 38 39 40 41 42 43 44 45 46 47 48 49 50 51 14 15 16 17 18 19 78 79"/>
    </vehicle>
    <vehicle id="0.4.4" depart="6.00">
        <route edges="64 33 34 35 36 37 38 39 40 41 42 43 44 45 46 47 48 49 50 51 52 53 54 55 56 57 58 59 60 61 4 5 6 7 8 9 10 11 12 13 14 15 16 17 18 19 78 79"/>
    </vehicle>
    <vehicle id="0.1.3" depart="7.00">
        <route edges="120 121 122 123 124 125 126 127 128 97 98 99 30 31"/>
    </vehicle>
    <vehicle id="0.2.3" depart="7.00">
        <route edges="80 81 82 83 84 85 86 87 88 89 90 91 118 119"/>
    </vehicle>
    <vehicle id="0.3.4" depart="7.00">
        <route edges="32 1 2 3 4 5 6 7 8 9 10 11 12 13 52 53 54 55 56 57 58 59 60 61 62 63"/>
    </vehicle>
    <vehicle id="0.4.5" depart="7.00">
        <route edges="64 33 34 35 36 37 38 39 40 41 42 43 44 45 46 47 48 49 50 51 52 53 54 55 56 57 58 59 60 61 62 63"/>
    </vehicle>
    <vehicle id="0.2.4" depart="8.00">
        <route edges="80 81 82 83 84 85 86 87 88 89 90 91 92 93 94 95 96 65 26 27 28 29 30 31"/>
    </vehicle>
    <vehicle id="0.3.5" depart="8.00">
        <route edges="32 1 2 3 62 63"/>
    </vehicle>
    <vehicle id="0.2.5" depart="9.00">
        <route edges="80 81 82 83 84 85 86 87 88 89 90 91 92 93 94 95 96 65 66 67 68 69 108 109 110 111 24 25 26 27 28 29 100 101 102 103 104 105 106 107 70 71 72 73 74 75 76 77 20 21 22 23 112 113 114 115 116 117 118 119"/>
    </vehicle>
    <vehicle id="0.3.6" depart="9.00">
        <route edges="32 1 2 3 4 5 6 7 8 9 10 11 12 13 14 15 16 17 18 19 20 21 22 23 24 25 26 27 28 29 100 101 102 103 104 105 106 107 70 71 72 73 74 75 76 77 78 79"/>
    </vehicle>
    <vehicle id="0.1.4" depart="10.00">
        <route edges="120 121 122 123 124 125 126 127 128 97 98 99 100 101 102 103 104 105 106 107 108 109 110 111 112 113 114 115 116 117 92 93 94 95 96 65 66 67 68 69 70 71 72 73 74 75 76 77 78 79"/>
    </vehicle>
    <vehicle id="0.2.6" depart="11.00">
        <route edges="80 81 82 83 84 85 86 87 88 89 90 91 92 93 94 95 96 65 66 67 68 69 70 71 72 73 74 75 76 77 20 21 22 23 112 113 114 115 116 117 118 119"/>
    </vehicle>
    <vehicle id="0.4.6" depart="11.00">
        <route edges="64 33 34 35 36 37 38 39 40 41 42 43 44 45 46 47 48 49 50 51 52 53 54 55 56 57 58 59 60 61 62 63"/>
    </vehicle>
    <vehicle id="0.1.5" depart="12.00">
        <route edges="120 121 122 123 124 125 126 127 128 97 98 99 30 31"/>
    </vehicle>
    <vehicle id="0.2.7" depart="12.00">
        <route edges="80 81 82 83 84 85 86 87 88 89 90 91 92 93 94 95 96 65 26 27 28 29 30 31"/>
    </vehicle>
    <vehicle id="0.1.6" depart="13.00">
        <route edges="120 121 122 123 124 125 126 127 128 97 98 99 100 101 102 103 104 105 106 107 108 109 110 111 112 113 114 115 116 117 118 119"/>
    </vehicle>
    <vehicle id="0.3.7" depart="13.00">
        <route edges="32 1 2 3 62 63"/>
    </vehicle>
    <vehicle id="0.4.7" depart="13.00">
        <route edges="64 33 34 35 36 37 38 39 40 41 42 43 44 45 46 47 48 49 50 51 52 53 54 55 56 57 58 59 60 61 62 63"/>
    </vehicle>
    <vehicle id="0.4.8" depart="14.00">
        <route edges="64 33 34 35 36 37 38 39 40 41 42 43 44 45 46 47 48 49 50 51 52 53 54 55 56 57 58 59 60 61 4 5 6 7 8 9 10 11 12 13 14 15 16 17 18 19 78 79"/>
    </vehicle>
    <vehicle id="0.1.7" depart="15.00">
        <route edges="120 121 122 123 124 125 126 127 128 97 98 99 30 31"/>
    </vehicle>
    <vehicle id="0.3.8" depart="15.00">
        <route edges="32 1 2 3 62 63"/>
    </vehicle>
    <vehicle id="0.1.8" depart="16.00">
        <route edges="120 121 122 123 124 125 126 127 128 97 98 99 30 31"/>
    </vehicle>
    <vehicle id="0.2.8" depart="16.00">
        <route edges="80 81 82 83 84 85 86 87 88 89 90 91 118 119"/>
    </vehicle>
    <vehicle id="0.4.9" depart="17.00">
        <route edges="64 33 34 35 36 37 38 39 40 41 42 43 44 45 46 47 48 49 50 51 14 15 16 17 18 19 78 79"/>
    </vehicle>
    <vehicle id="0.1.9" depart="18.00">
        <route edges="120 121 122 123 124 125 126 127 128 97 98 99 30 31"/>
    </vehicle>
    <vehicle id="0.2.9" depart="18.00">
        <route edges="80 81 82 83 84 85 86 87 88 89 90 91 92 93 94 95 96 65 66 67 68 69 70 71 72 73 74 75 76 77 78 79"/>
    </vehicle>
    <vehicle id="0.2.10" depart="19.00">
        <route edges="80 81 82 83 84 85 86 87 88 89 90 91 118 119"/>
    </vehicle>
    <vehicle id="0.3.9" depart="19.00">
        <route edges="32 1 2 3 62 63"/>
    </vehicle>
    <vehicle id="0.1.10" depart="20.00">
        <route edges="120 121 122 123 124 125 126 127 128 97 98 99 30 31"/>
    </vehicle>
    <vehicle id="0.2.11" depart="21.00">
        <route edges="80 81 82 83 84 85 86 87 88 89 90 91 92 93 94 95 96 65 66 67 68 69 70 71 72 73 74 75 76 77 20 21 22 23 24 25 26 27 28 29 100 101 102 103 104 105 106 107 108 109 110 111 112 113 114 115 116 117 118 119"/>
    </vehicle>
    <vehicle id="0.4.10" depart="21.00">
        <route edges="64 33 34 35 36 37 38 39 40 41 42 43 44 45 46 47 48 49 50 51 14 15 16 17 18 19 78 79"/>
    </vehicle>
    <vehicle id="0.1.11" depart="22.00">
        <route edges="120 121 122 123 124 125 126 127 128 97 98 99 30 31"/>
    </vehicle>
    <vehicle id="0.4.11" depart="22.00">
        <route edges="64 33 34 35 36 37 38 39 40 41 42 43 44 45 46 47 48 49 50 51 14 15 16 17 18 19 78 79"/>
    </vehicle>
    <vehicle id="0.2.12" depart="23.00">
        <route edges="80 81 82 83 84 85 86 87 88 89 90 91 118 119"/>
    </vehicle>
    <vehicle id="0.3.10" depart="23.00">
        <route edges="32 1 2 3 4 5 6 7 8 9 10 11 12 13 52 53 54 55 56 57 58 59 60 61 62 63"/>
    </vehicle>
    <vehicle id="0.3.11" depart="24.00">
        <route edges="32 1 2 3 62 63"/>
    </vehicle>
    <vehicle id="0.3.12" depart="25.00">
        <route edges="32 1 2 3 62 63"/>
    </vehicle>
    <vehicle id="0.4.12" depart="25.00">
        <route edges="64 33 34 35 36 37 38 39 40 41 42 43 44 45 46 47 48 49 50 51 52 53 54 55 56 57 58 59 60 61 62 63"/>
    </vehicle>
    <vehicle id="0.1.12" depart="27.00">
        <route edges="120 121 122 123 124 125 126 127 128 97 98 99 30 31"/>
    </vehicle>
    <vehicle id="0.2.13" depart="27.00">
        <route edges="80 81 82 83 84 85 86 87 88 89 90 91 118 119"/>
    </vehicle>
    <vehicle id="0.3.13" depart="27.00">
        <route edges="32 1 2 3 4 5 6 7 8 9 10 11 12 13 14 15 16 17 18 19 20 21 22 23 112 113 114 115 116 117 118 119"/>
    </vehicle>
    <vehicle id="0.4.13" depart="27.00">
        <route edges="64 33 34 35 36 37 38 39 40 41 42 43 44 45 46 47 48 49 50 51 14 15 16 17 18 19 20 21 22 23 112 113 114 115 116 117 118 119"/>
    </vehicle>
    <vehicle id="0.4.14" depart="28.00">
        <route edges="64 33 34 35 36 37 38 39 40 41 42 43 44 45 46 47 48 49 50 51 52 53 54 55 56 57 58 59 60 61 4 5 6 7 8 9 10 11 12 13 14 15 16 17 18 19 78 79"/>
    </vehicle>
    <vehicle id="0.1.13" depart="29.00">
        <route edges="120 121 122 123 124 125 126 127 128 97 98 99 30 31"/>
    </vehicle>
    <vehicle id="0.2.14" depart="29.00">
        <route edges="80 81 82 83 84 85 86 87 88 89 90 91 92 93 94 95 96 65 66 67 68 69 70 71 72 73 74 75 76 77 78 79"/>
    </vehicle>
    <vehicle id="0.3.14" depart="29.00">
        <route edges="32 1 2 3 62 63"/>
    </vehicle>
    <vehicle id="0.1.14" depart="30.00">
        <route edges="120 121 122 123 124 125 126 127 128 97 98 99 30 31"/>
    </vehicle>
    <vehicle id="0.2.15" depart="30.00">
        <route edges="80 81 82 83 84 85 86 87 88 89 90 91 92 93 94 95 96 65 26 27 28 29 100 101 102 103 104 105 106 107 108 109 110 111 24 25 66 67 68 69 70 71 72 73 74 75 76 77 20 21 22 23 112 113 114 115 116 117 118 119"/>
    </vehicle>
    <vehicle id="0.3.15" depart="30.00">
        <route edges="32 1 2 3 62 63"/>
    </vehicle>
    <vehicle id="0.1.15" depart="31.00">
        <route edges="120 121 122 123 124 125 126 127 128 97 98 99 30 31"/>
    </vehicle>
    <vehicle id="0.2.16" depart="31.00">
        <route edges="80 81 82 83 84 85 86 87 88 89 90 91 118 119"/>
    </vehicle>
    <vehicle id="0.3.16" depart="31.00">
        <route edges="32 1 2 3 4 5 6 7 8 9 10 11 12 13 52 53 54 55 56 57 58 59 60 61 62 63"/>
    </vehicle>
    <vehicle id="0.2.17" depart="32.00">
        <route edges="80 81 82 83 84 85 86 87 88 89 90 91 118 119"/>
    </vehicle>
    <vehicle id="0.1.16" depart="33.00">
        <route edges="120 121 122 123 124 125 126 127 128 97 98 99 100 101 102 103 104 105 106 107 70 71 72 73 74 75 76 77 78 79"/>
    </vehicle>
    <vehicle id="0.2.18" depart="33.00">
        <route edges="80 81 82 83 84 85 86 87 88 89 90 91 118 119"/>
    </vehicle>
    <vehicle id="0.3.17" depart="33.00">
        <route edges="32 1 2 3 4 5 6 7 8 9 10 11 12 13 52 53 54 55 56 57 58 59 60 61 62 63"/>
    </vehicle>
    <vehicle id="0.2.19" depart="34.00">
        <route edges="80 81 82 83 84 85 86 87 88 89 90 91 118 119"/>
    </vehicle>
    <vehicle id="0.3.18" depart="34.00">
        <route edges="32 1 2 3 4 5 6 7 8 9 10 11 12 13 52 53 54 55 56 57 58 59 60 61 62 63"/>
    </vehicle>
    <vehicle id="0.4.15" depart="34.00">
        <route edges="64 33 34 35 36 37 38 39 40 41 42 43 44 45 46 47 48 49 50 51 14 15 16 17 18 19 78 79"/>
    </vehicle>
    <vehicle id="0.1.17" depart="35.00">
        <route edges="120 121 122 123 124 125 126 127 128 97 98 99 30 31"/>
    </vehicle>
    <vehicle id="0.3.19" depart="35.00">
        <route edges="32 1 2 3 4 5 6 7 8 9 10 11 12 13 52 53 54 55 56 57 58 59 60 61 62 63"/>
    </vehicle>
    <vehicle id="0.4.16" depart="36.00">
        <route edges="64 33 34 35 36 37 38 39 40 41 42 43 44 45 46 47 48 49 50 51 52 53 54 55 56 57 58 59 60 61 4 5 6 7 8 9 10 11 12 13 14 15 16 17 18 19 20 21 22 23 24 25 66 67 68 69 70 71 72 73 74 75 76 77 78 79"/>
    </vehicle>
    <vehicle id="0.1.18" depart="37.00">
        <route edges="120 121 122 123 124 125 126 127 128 97 98 99 100 101 102 103 104 105 106 107 108 109 110 111 24 25 66 67 68 69 70 71 72 73 74 75 76 77 20 21 22 23 112 113 114 115 116 117 92 93 94 95 96 65 26 27 28 29 30 31"/>
    </vehicle>
    <vehicle id="0.2.20" depart="37.00">
        <route edges="80 81 82 83 84 85 86 87 88 89 90 91 92 93 94 95 96 65 66 67 68 69 70 71 72 73 74 75 76 77 78 79"/>
    </vehicle>
    <vehicle id="0.4.17" depart="37.00">
        <route edges="64 33 34 35 36 37 38 39 40 41 42 43 44 45 46 47 48 49 50 51 14 15 16 17 18 19 20 21 22 23 112 113 114 115 116 117 118 119"/>
    </vehicle>
    <vehicle id="0.1.19" depart="38.00">
        <route edges="120 121 122 123 124 125 126 127 128 97 98 99 100 101 102 103 104 105 106 107 70 71 72 73 74 75 76 77 20 21 22 23 24 25 26 27 28 29 30 31"/>
    </vehicle>
    <vehicle id="0.1.20" depart="39.00">
        <route edges="120 121 122 123 124 125 126 127 128 97 98 99 100 101 102 103 104 105 106 107 70 71 72 73 74 75 76 77 20 21 22 23 24 25 26 27 28 29 30 31"/>
    </vehicle>
    <vehicle id="0.2.21" depart="39.00">
        <route edges="80 81 82 83 84 85 86 87 88 89 90 91 92 93 94 95 96 65 66 67 68 69 70 71 72 73 74 75 76 77 20 21 22 23 24 25 26 27 28 29 30 31"/>
    </vehicle>
    <vehicle id="0.3.20" depart="39.00">
        <route edges="32 1 2 3 62 63"/>
    </vehicle>
    <vehicle id="0.1.21" depart="40.00">
        <route edges="120 121 122 123 124 125 126 127 128 97 98 99 30 31"/>
    </vehicle>
    <vehicle id="0.2.22" depart="40.00">
        <route edges="80 81 82 83 84 85 86 87 88 89 90 91 118 119"/>
    </vehicle>
    <vehicle id="0.4.18" depart="40.00">
        <route edges="64 33 34 35 36 37 38 39 40 41 42 43 44 45 46 47 48 49 50 51 52 53 54 55 56 57 58 59 60 61 62 63"/>
    </vehicle>
    <vehicle id="0.2.23" depart="41.00">
        <route edges="80 81 82 83 84 85 86 87 88 89 90 91 118 119"/>
    </vehicle>
    <vehicle id="0.4.19" depart="41.00">
        <route edges="64 33 34 35 36 37 38 39 40 41 42 43 44 45 46 47 48 49 50 51 14 15 16 17 18 19 20 21 22 23 112 113 114 115 116 117 118 119"/>
    </vehicle>
    <vehicle id="0.1.22" depart="42.00">
        <route edges="120 121 122 123 124 125 126 127 128 97 98 99 30 31"/>
    </vehicle>
    <vehicle id="0.3.21" depart="42.00">
        <route edges="32 1 2 3 62 63"/>
    </vehicle>
    <vehicle id="0.1.23" depart="43.00">
        <route edges="120 121 122 123 124 125 126 127 128 97 98 99 30 31"/>
    </vehicle>
    <vehicle id="0.2.24" depart="43.00">
        <route edges="80 81 82 83 84 85 86 87 88 89 90 91 118 119"/>
    </vehicle>
    <vehicle id="0.1.24" depart="44.00">
        <route edges="120 121 122 123 124 125 126 127 128 97 98 99 100 101 102 103 104 105 106 107 70 71 72 73 74 75 76 77 20 21 22 23 112 113 114 115 116 117 118 119"/>
    </vehicle>
    <vehicle id="0.2.25" depart="44.00">
        <route edges="80 81 82 83 84 85 86 87 88 89 90 91 118 119"/>
    </vehicle>
    <vehicle id="0.4.20" depart="44.00">
        <route edges="64 33 34 35 36 37 38 39 40 41 42 43 44 45 46 47 48 49 50 51 14 15 16 17 18 19 20 21 22 23 112 113 114 115 116 117 92 93 94 95 96 65 66 67 68 69 70 71 72 73 74 75 76 77 78 79"/>
    </vehicle>
    <vehicle id="0.2.26" depart="45.00">
        <route edges="80 81 82 83 84 85 86 87 88 89 90 91 92 93 94 95 96 65 26 27 28 29 100 101 102 103 104 105 106 107 108 109 110 111 112 113 114 115 116 117 118 119"/>
    </vehicle>
    <vehicle id="0.3.22" depart="45.00">
        <route edges="32 1 2 3 4 5 6 7 8 9 10 11 12 13 14 15 16 17 18 19 20 21 22 23 112 113 114 115 116 117 118 119"/>
    </vehicle>
    <vehicle id="0.4.21" depart="45.00">
        <route edges="64 33 34 35 36 37 38 39 40 41 42 43 44 45 46 47 48 49 50 51 52 53 54 55 56 57 58 59 60 61 4 5 6 7 8 9 10 11 12 13 14 15 16 17 18 19 20 21 22 23 112 113 114 115 116 117 92 93 94 95 96 65 66 67 68 69 70 71 72 73 74 75 76 77 78 79"/>
    </vehicle>
    <vehicle id="0.1.25" depart="46.00">
        <route edges="120 121 122 123 124 125 126 127 128 97 98 99 30 31"/>
    </vehicle>
    <vehicle id="0.3.23" depart="46.00">
        <route edges="32 1 2 3 62 63"/>
    </vehicle>
    <vehicle id="0.2.27" depart="47.00">
        <route edges="80 81 82 83 84 85 86 87 88 89 90 91 92 93 94 95 96 65 66 67 68 69 70 71 72 73 74 75 76 77 78 79"/>
    </vehicle>
    <vehicle id="0.1.26" depart="48.00">
        <route edges="120 121 122 123 124 125 126 127 128 97 98 99 30 31"/>
    </vehicle>
    <vehicle id="0.2.28" depart="48.00">
        <route edges="80 81 82 83 84 85 86 87 88 89 90 91 92 93 94 95 96 65 26 27 28 29 100 101 102 103 104 105 106 107 108 109 110 111 112 113 114 115 116 117 118 119"/>
    </vehicle>
    <vehicle id="0.4.22" depart="48.00">
        <route edges="64 33 34 35 36 37 38 39 40 41 42 43 44 45 46 47 48 49 50 51 14 15 16 17 18 19 78 79"/>
    </vehicle>
    <vehicle id="0.2.29" depart="49.00">
        <route edges="80 81 82 83 84 85 86 87 88 89 90 91 118 119"/>
    </vehicle>
    <vehicle id="0.2.30" depart="50.00">
        <route edges="80 81 82 83 84 85 86 87 88 89 90 91 92 93 94 95 96 65 26 27 28 29 30 31"/>
    </vehicle>
    <vehicle id="0.3.24" depart="50.00">
        <route edges="32 1 2 3 62 63"/>
    </vehicle>
    <vehicle id="0.4.23" depart="51.00">
        <route edges="64 33 34 35 36 37 38 39 40 41 42 43 44 45 46 47 48 49 50 51 14 15 16 17 18 19 78 79"/>
    </vehicle>
    <vehicle id="0.3.25" depart="52.00">
        <route edges="32 1 2 3 4 5 6 7 8 9 10 11 12 13 52 53 54 55 56 57 58 59 60 61 62 63"/>
    </vehicle>
    <vehicle id="0.4.24" depart="52.00">
        <route edges="64 33 34 35 36 37 38 39 40 41 42 43 44 45 46 47 48 49 50 51 14 15 16 17 18 19 20 21 22 23 112 113 114 115 116 117 92 93 94 95 96 65 66 67 68 69 70 71 72 73 74 75 76 77 78 79"/>
    </vehicle>
    <vehicle id="0.3.26" depart="53.00">
        <route edges="32 1 2 3 4 5 6 7 8 9 10 11 12 13 52 53 54 55 56 57 58 59 60 61 62 63"/>
    </vehicle>
    <vehicle id="0.4.25" depart="53.00">
        <route edges="64 33 34 35 36 37 38 39 40 41 42 43 44 45 46 47 48 49 50 51 14 15 16 17 18 19 78 79"/>
    </vehicle>
    <vehicle id="0.4.26" depart="54.00">
        <route edges="64 33 34 35 36 37 38 39 40 41 42 43 44 45 46 47 48 49 50 51 52 53 54 55 56 57 58 59 60 61 4 5 6 7 8 9 10 11 12 13 14 15 16 17 18 19 78 79"/>
    </vehicle>
    <vehicle id="0.1.27" depart="55.00">
        <route edges="120 121 122 123 124 125 126 127 128 97 98 99 100 101 102 103 104 105 106 107 70 71 72 73 74 75 76 77 78 79"/>
    </vehicle>
    <vehicle id="0.2.31" depart="55.00">
        <route edges="80 81 82 83 84 85 86 87 88 89 90 91 92 93 94 95 96 65 66 67 68 69 108 109 110 111 24 25 26 27 28 29 100 101 102 103 104 105 106 107 70 71 72 73 74 75 76 77 20 21 22 23 112 113 114 115 116 117 118 119"/>
    </vehicle>
    <vehicle id="0.4.27" depart="55.00">
        <route edges="64 33 34 35 36 37 38 39 40 41 42 43 44 45 46 47 48 49 50 51 52 53 54 55 56 57 58 59 60 61 4 5 6 7 8 9 10 11 12 13 14 15 16 17 18 19 78 79"/>
    </vehicle>
    <vehicle id="0.1.28" depart="56.00">
        <route edges="120 121 122 123 124 125 126 127 128 97 98 99 30 31"/>
    </vehicle>
    <vehicle id="0.3.27" depart="56.00">
        <route edges="32 1 2 3 4 5 6 7 8 9 10 11 12 13 14 15 16 17 18 19 20 21 22 23 112 113 114 115 116 117 118 119"/>
    </vehicle>
    <vehicle id="0.4.28" depart="57.00">
        <route edges="64 33 34 35 36 37 38 39 40 41 42 43 44 45 46 47 48 49 50 51 52 53 54 55 56 57 58 59 60 61 4 5 6 7 8 9 10 11 12 13 14 15 16 17 18 19 78 79"/>
    </vehicle>
    <vehicle id="0.1.29" depart="58.00">
        <route edges="120 121 122 123 124 125 126 127 128 97 98 99 30 31"/>
    </vehicle>
    <vehicle id="0.2.32" depart="58.00">
        <route edges="80 81 82 83 84 85 86 87 88 89 90 91 118 119"/>
    </vehicle>
    <vehicle id="0.3.28" depart="58.00">
        <route edges="32 1 2 3 62 63"/>
    </vehicle>
    <vehicle id="0.2.33" depart="59.00">
        <route edges="80 81 82 83 84 85 86 87 88 89 90 91 118 119"/>
    </vehicle>
    <vehicle id="0.1.30" depart="60.00">
        <route edges="120 121 122 123 124 125 126 127 128 97 98 99 100 101 102 103 104 105 106 107 70 71 72 73 74 75 76 77 78 79"/>
    </vehicle>
    <vehicle id="0.2.34" depart="60.00">
        <route edges="80 81 82 83 84 85 86 87 88 89 90 91 92 93 94 95 96 65 66 67 68 69 70 71 72 73 74 75 76 77 20 21 22 23 112 113 114 115 116 117 118 119"/>
    </vehicle>
    <vehicle id="0.4.29" depart="60.00">
        <route edges="64 33 34 35 36 37 38 39 40 41 42 43 44 45 46 47 48 49 50 51 14 15 16 17 18 19 78 79"/>
    </vehicle>
    <vehicle id="0.1.31" depart="62.00">
        <route edges="120 121 122 123 124 125 126 127 128 97 98 99 100 101 102 103 104 105 106 107 70 71 72 73 74 75 76 77 78 79"/>
    </vehicle>
    <vehicle id="0.2.35" depart="62.00">
        <route edges="80 81 82 83 84 85 86 87 88 89 90 91 118 119"/>
    </vehicle>
    <vehicle id="0.3.29" depart="62.00">
        <route edges="32 1 2 3 62 63"/>
    </vehicle>
    <vehicle id="0.1.32" depart="63.00">
        <route edges="120 121 122 123 124 125 126 127 128 97 98 99 100 101 102 103 104 105 106 107 108 109 110 111 112 113 114 115 116 117 118 119"/>
    </vehicle>
    <vehicle id="0.2.36" depart="63.00">
        <route edges="80 81 82 83 84 85 86 87 88 89 90 91 118 119"/>
    </vehicle>
    <vehicle id="0.1.33" depart="64.00">
        <route edges="120 121 122 123 124 125 126 127 128 97 98 99 100 101 102 103 104 105 106 107 70 71 72 73 74 75 76 77 20 21 22 23 112 113 114 115 116 117 118 119"/>
    </vehicle>
    <vehicle id="0.2.37" depart="64.00">
        <route edges="80 81 82 83 84 85 86 87 88 89 90 91 92 93 94 95 96 65 66 67 68 69 70 71 72 73 74 75 76 77 20 21 22 23 112 113 114 115 116 117 118 119"/>
    </vehicle>
    <vehicle id="0.4.30" depart="64.00">
        <route edges="64 33 34 35 36 37 38 39 40 41 42 43 44 45 46 47 48 49 50 51 14 15 16 17 18 19 20 21 22 23 112 113 114 115 116 117 92 93 94 95 96 65 66 67 68 69 108 109 110 111 24 25 26 27 28 29 30 31"/>
    </vehicle>
    <vehicle id="0.2.38" depart="65.00">
        <route edges="80 81 82 83 84 85 86 87 88 89 90 91 92 93 94 95 96 65 26 27 28 29 100 101 102 103 104 105 106 107 70 71 72 73 74 75 76 77 20 21 22 23 24 25 66 67 68 69 108 109 110 111 112 113 114 115 116 117 118 119"/>
    </vehicle>
    <vehicle id="0.3.30" depart="65.00">
        <route edges="32 1 2 3 62 63"/>
    </vehicle>
    <vehicle id="0.3.31" depart="66.00">
        <route edges="32 1 2 3 4 5 6 7 8 9 10 11 12 13 52 53 54 55 56 57 58 59 60 61 62 63"/>
    </vehicle>
    <vehicle id="0.1.34" depart="67.00">
        <route edges="120 121 122 123 124 125 126 127 128 97 98 99 30 31"/>
    </vehicle>
    <vehicle id="0.2.39" depart="67.00">
        <route edges="80 81 82 83 84 85 86 87 88 89 90 91 92 93 94 95 96 65 26 27 28 29 100 101 102 103 104 105 106 107 108 109 110 111 112 113 114 115 116 117 118 119"/>
    </vehicle>
    <vehicle id="0.4.31" depart="67.00">
        <route edges="64 33 34 35 36 37 38 39 40 41 42 43 44 45 46 47 48 49 50 51 52 53 54 55 56 57 58 59 60 61 62 63"/>
    </vehicle>
    <vehicle id="0.1.35" depart="68.00">
        <route edges="120 121 122 123 124 125 126 127 128 97 98 99 30 31"/>
    </vehicle>
    <vehicle id="0.4.32" depart="69.00">
        <route edges="64 33 34 35 36 37 38 39 40 41 42 43 44 45 46 47 48 49 50 51 14 15 16 17 18 19 78 79"/>
    </vehicle>
    <vehicle id="0.1.36" depart="70.00">
        <route edges="120 121 122 123 124 125 126 127 128 97 98 99 100 101 102 103 104 105 106 107 70 71 72 73 74 75 76 77 78 79"/>
    </vehicle>
    <vehicle id="0.1.37" depart="71.00">
        <route edges="120 121 122 123 124 125 126 127 128 97 98 99 30 31"/>
    </vehicle>
    <vehicle id="0.2.40" depart="71.00">
        <route edges="80 81 82 83 84 85 86 87 88 89 90 91 92 93 94 95 96 65 66 67 68 69 70 71 72 73 74 75 76 77 78 79"/>
    </vehicle>
    <vehicle id="0.4.33" depart="71.00">
        <route edges="64 33 34 35 36 37 38 39 40 41 42 43 44 45 46 47 48 49 50 51 52 53 54 55 56 57 58 59 60 61 4 5 6 7 8 9 10 11 12 13 14 15 16 17 18 19 78 79"/>
    </vehicle>
    <vehicle id="0.1.38" depart="72.00">
        <route edges="120 121 122 123 124 125 126 127 128 97 98 99 100 101 102 103 104 105 106 107 70 71 72 73 74 75 76 77 20 21 22 23 24 25 26 27 28 29 30 31"/>
    </vehicle>
    <vehicle id="0.4.34" depart="72.00">
        <route edges="64 33 34 35 36 37 38 39 40 41 42 43 44 45 46 47 48 49 50 51 52 53 54 55 56 57 58 59 60 61 4 5 6 7 8 9 10 11 12 13 14 15 16 17 18 19 78 79"/>
    </vehicle>
    <vehicle id="0.3.32" depart="73.00">
        <route edges="32 1 2 3 62 63"/>
    </vehicle>
    <vehicle id="0.1.39" depart="74.00">
        <route edges="120 121 122 123 124 125 126 127 128 97 98 99 30 31"/>
    </vehicle>
    <vehicle id="0.2.41" depart="74.00">
        <route edges="80 81 82 83 84 85 86 87 88 89 90 91 92 93 94 95 96 65 26 27 28 29 100 101 102 103 104 105 106 107 108 109 110 111 24 25 66 67 68 69 70 71 72 73 74 75 76 77 20 21 22 23 112 113 114 115 116 117 118 119"/>
    </vehicle>
    <vehicle id="0.4.35" depart="74.00">
        <route edges="64 33 34 35 36 37 38 39 40 41 42 43 44 45 46 47 48 49 50 51 14 15 16 17 18 19 20 21 22 23 112 113 114 115 116 117 92 93 94 95 96 65 66 67 68 69 70 71 72 73 74 75 76 77 78 79"/>
    </vehicle>
    <vehicle id="0.1.40" depart="75.00">
        <route edges="120 121 122 123 124 125 126 127 128 97 98 99 30 31"/>
    </vehicle>
    <vehicle id="0.2.42" depart="75.00">
        <route edges="80 81 82 83 84 85 86 87 88 89 90 91 118 119"/>
    </vehicle>
    <vehicle id="0.1.41" depart="76.00">
        <route edges="120 121 122 123 124 125 126 127 128 97 98 99 100 101 102 103 104 105 106 107 70 71 72 73 74 75 76 77 78 79"/>
    </vehicle>
    <vehicle id="0.4.36" depart="76.00">
        <route edges="64 33 34 35 36 37 38 39 40 41 42 43 44 45 46 47 48 49 50 51 14 15 16 17 18 19 78 79"/>
    </vehicle>
    <vehicle id="0.1.42" depart="77.00">
        <route edges="120 121 122 123 124 125 126 127 128 97 98 99 100 101 102 103 104 105 106 107 70 71 72 73 74 75 76 77 20 21 22 23 24 25 66 67 68 69 108 109 110 111 112 113 114 115 116 117 118 119"/>
    </vehicle>
    <vehicle id="0.4.37" depart="77.00">
        <route edges="64 33 34 35 36 37 38 39 40 41 42 43 44 45 46 47 48 49 50 51 14 15 16 17 18 19 78 79"/>
    </vehicle>
    <vehicle id="0.4.38" depart="78.00">
        <route edges="64 33 34 35 36 37 38 39 40 41 42 43 44 45 46 47 48 49 50 51 52 53 54 55 56 57 58 59 60 61 4 5 6 7 8 9 10 11 12 13 14 15 16 17 18 19 20 21 22 23 112 113 114 115 116 117 118 119"/>
    </vehicle>
    <vehicle id="0.1.43" depart="79.00">
        <route edges="120 121 122 123 124 125 126 127 128 97 98 99 30 31"/>
    </vehicle>
    <vehicle id="0.3.33" depart="79.00">
        <route edges="32 1 2 3 4 5 6 7 8 9 10 11 12 13 14 15 16 17 18 19 20 21 22 23 24 25 66 67 68 69 108 109 110 111 112 113 114 115 116 117 118 119"/>
    </vehicle>
    <vehicle id="0.1.44" depart="80.00">
        <route edges="120 121 122 123 124 125 126 127 128 97 98 99 30 31"/>
    </vehicle>
    <vehicle id="0.2.43" depart="80.00">
        <route edges="80 81 82 83 84 85 86 87 88 89 90 91 118 119"/>
    </vehicle>
    <vehicle id="0.4.39" depart="80.00">
        <route edges="64 33 34 35 36 37 38 39 40 41 42 43 44 45 46 47 48 49 50 51 52 53 54 55 56 57 58 59 60 61 4 5 6 7 8 9 10 11 12 13 14 15 16 17 18 19 20 21 22 23 112 113 114 115 116 117 92 93 94 95 96 65 26 27 28 29 30 31"/>
    </vehicle>
    <vehicle id="0.1.45" depart="81.00">
        <route edges="120 121 122 123 124 125 126 127 128 97 98 99 30 31"/>
    </vehicle>
    <vehicle id="0.3.34" depart="81.00">
        <route edges="32 1 2 3 4 5 6 7 8 9 10 11 12 13 14 15 16 17 18 19 20 21 22 23 24 25 66 67 68 69 70 71 72 73 74 75 76 77 78 79"/>
    </vehicle>
    <vehicle id="0.4.40" depart="81.00">
        <route edges="64 33 34 35 36 37 38 39 40 41 42 43 44 45 46 47 48 49 50 51 52 53 54 55 56 57 58 59 60 61 62 63"/>
    </vehicle>
    <vehicle id="0.2.44" depart="82.00">
        <route edges="80 81 82 83 84 85 86 87 88 89 90 91 118 119"/>
    </vehicle>
    <vehicle id="0.4.41" depart="82.00">
        <route edges="64 33 34 35 36 37 38 39 40 41 42 43 44 45 46 47 48 49 50 51 52 53 54 55 56 57 58 59 60 61 62 63"/>
    </vehicle>
    <vehicle id="0.1.46" depart="83.00">
        <route edges="120 121 122 123 124 125 126 127 128 97 98 99 30 31"/>
    </vehicle>
    <vehicle id="0.2.45" depart="83.00">
        <route edges="80 81 82 83 84 85 86 87 88 89 90 91 92 93 94 95 96 65 66 67 68 69 108 109 110 111 112 113 114 115 116 117 118 119"/>
    </vehicle>
    <vehicle id="0.3.35" depart="83.00">
        <route edges="32 1 2 3 62 63"/>
    </vehicle>
    <vehicle id="0.2.46" depart="84.00">
        <route edges="80 81 82 83 84 85 86 87 88 89 90 91 118 119"/>
    </vehicle>
    <vehicle id="0.4.42" depart="84.00">
        <route edges="64 33 34 35 36 37 38 39 40 41 42 43 44 45 46 47 48 49 50 51 14 15 16 17 18 19 20 21 22 23 24 25 66 67 68 69 108 109 110 111 112 113 114 115 116 117 92 93 94 95 96 65 26 27 28 29 30 31"/>
    </vehicle>
    <vehicle id="0.1.47" depart="85.00">
        <route edges="120 121 122 123 124 125 126 127 128 97 98 99 30 31"/>
    </vehicle>
    <vehicle id="0.3.36" depart="85.00">