 <flows>
    <flow id="0.1" from="33" begin="0" end="3600" probability="0.5"/>
  </flows>